15
is
C 2.88476800 -0.25356500 0.00013000
O 1.54570800 -0.76685900 -0.00004400
C 0.56750800 0.17377300 -0.00019200
O 0.79231800 1.36897500 -0.00000200
C -0.76785000 -0.46295100 -0.00009900
C -1.88079800 0.28104400 0.00000600
C -3.27831300 -0.25241000 0.00009000
H -1.75896500 1.36393100 0.00002800
H 3.53594200 -1.12849800 0.00040500
H 3.06378600 0.35805200 -0.88866300
H 3.06344300 0.35836600 0.88877200
H -3.30056200 -1.34663900 0.00004800
H -3.83045700 0.10583600 0.87928300
H -3.83059300 0.10590700 -0.87898900
H -0.79868900 -1.54923700 -0.00012600